! generator: yaml2ck
! cantera-version: 3.0.1
! date: Sat, 16 Nov 2024 23:25:02 +0300
! input-files: ['ethanol66.yaml']
!
! GRI-Mech Version 3.0 7/30/99  CHEMKIN-II format See README30 file at anonymous FTP site unix.sri.com, directory gri;
! WorldWideWeb home page http://www.me.berkeley.edu/gri_mech/ or through http://www.gri.org , under 'Basic  Research',
! for additional information, contacts, and disclaimer

ELEM
N Ar He H O C
END

SPECIES
N2  AR  HE  H  O2  OH  O  H2  H2O  HO2  CO  CO2  HCO  CH3  CH4  CH2O  T-CH2
S-CH2  C2H4  CH3O  C2H5  C2H6  H2O2  C2H2  C2H3  CH2CHO  CH2CO  CH2OH  CH3CHO
CH3CO  C2H5OH  CH2CH2OH  CH3CHOH  CH3CH2O
END

REACTIONS CAL/MOLE MOLE
H + O2 <=> O + OH               3.520000000000001e+16 -0.7 17069.79
H2 + O <=> H + OH               50600.00000000001 2.67 6290.63
H2 + OH <=> H + H2O             1170000000.0000002 1.3 3635.28
H2O + O <=> 2 OH                700000.0000000001 2.33 14548.28
2 H + M <=> H2 + M              1.3000000000000003e+18 -1.0 0.0
AR/5.000E-01/ CO/1.900E+00/ CO2/3.800E+00/ H2/2.500E+00/ H2O/1.200E+01/ HE/5.000E-01/
H + OH + M <=> H2O + M          4.000000000000001e+22 -2.0 0.0
AR/3.800E-01/ CO/1.900E+00/ CO2/3.800E+00/ H2/2.500E+00/ H2O/1.200E+01/ HE/3.800E-01/
H + O + M <=> OH + M            4.710000000000001e+18 -1.0 0.0
AR/7.500E-01/ CO/1.900E+00/ CO2/3.800E+00/ H2/2.500E+00/ H2O/1.200E+01/ HE/7.500E-01/
H + O2 (+M) <=> HO2 (+M)        4650000000000.001 0.44 0.0
LOW /5.750000000000001e+19 -1.4 0.0/
TROE /0.5 1E-30 1E+30/
AR/7.000E-01/ C2H6/1.500E+00/ CO/1.200E+00/ CO2/2.400E+00/ H2/2.500E+00/ H2O/1.600E+01/ HE/7.000E-01/
H + HO2 <=> 2 OH                70800000000000.02 0.0 294.93
H + HO2 => H2 + O2              16600000000000.002 0.0 822.9
H + HO2 <=> H2O + O             31000000000000.004 0.0 1720.84
HO2 + O => O2 + OH              20000000000000.004 0.0 0.0
HO2 + OH <=> H2O + O2           7000000000000.001 0.0 -1094.65
DUPLICATE
HO2 + OH <=> H2O + O2           450000000000000.06 0.0 10929.73
DUPLICATE
2 OH (+M) <=> H2O2 (+M)         95500000000000.02 -0.27 0.0
LOW /2.760000000000001e+25 -3.2 0.0/
TROE /0.57 1E+30 1E-30/
AR/7.000E-01/ CO/1.500E+00/ CO2/2.000E+00/ H2/2.500E+00/ H2O/6.000E+00/ H2O2/6.000E+00/ HE/4.000E-01/
2 HO2 => H2O2 + O2              103000000000000.02 0.0 11042.07
DUPLICATE
2 HO2 => H2O2 + O2              194000000000.00003 0.0 -1408.94
DUPLICATE
H2O2 + OH => H2O + HO2          1740000000000.0002 0.0 1434.03
DUPLICATE
H2O2 + OH => H2O + HO2          75900000000000.02 0.0 7272.94
DUPLICATE
CO + OH <=> CO2 + H             4400000.0 1.5 -740.92
HCO + M => CO + H + M           1.8600000000000003e+17 -1.0 17000.48
CO/2.500E+00/ CO2/2.500E+00/ H2/1.900E+00/ H2O/1.200E+01/
H + HCO => CO + H2              50000000000000.01 0.0 0.0
HCO + OH => CO + H2O            30000000000000.004 0.0 0.0
HCO + O2 => CO + HO2            7580000000000.001 0.0 409.89
CH3 + HCO => CH4 + CO           50000000000000.01 0.0 0.0
CH2O + H => H2 + HCO            57400000.000000015 1.9 2748.57
CH2O + O => HCO + OH            35000000000000.008 0.0 3513.38
CH2O + OH => H2O + HCO          39000000000.00001 0.89 406.31
CH4 + H => CH3 + H2             13000.000000000004 3.0 8037.760000000001
CH4 + OH => CH3 + H2O           16000000.000000004 1.83 2782.03
CH3 + OH <=> H2O + S-CH2        40000000000000.01 0.0 2502.39
CH3 + O => CH2O + H             84300000000000.02 0.0 0.0
CH3 + HO2 => CH3O + OH          5000000000000.001 0.0 0.0
CH3 + O2 => CH2O + OH           330000000000.00006 0.0 8941.2
2 CH3 <=> C2H5 + H              31600000000000.004 0.0 14698.85
CH3 + H (+M) => CH4 (+M)        1.2700000000000002e+16 -0.63 382.89
LOW /2.4700000000000006e+33 -4.76 2440.01/
TROE /0.783 74 2941 6964/
AR/7.000E-01/ CH4/2.000E+00/ CO/1.500E+00/ CO2/2.000E+00/ H2/2.000E+00/ H2O/1.600E+01/
2 CH3 (+M) => C2H6 (+M)         18100000000000.004 0.0 0.0
LOW /1.2700000000000002e+41 -7.0 2762.91/
TROE /0.62 73 1200/
AR/7.000E-01/ C2H6/3.000E+00/ CH4/2.000E+00/ CO/1.500E+00/ CO2/2.000E+00/ H2/2.000E+00/ H2O/6.000E+00/
O2 + S-CH2 => CO + H + OH       31300000000000.004 0.0 0.0
O2 + T-CH2 => CO2 + H2          2630000000000.0005 0.0 1491.4
O2 + T-CH2 => CO + H + OH       6580000000000.001 0.0 1491.4
CH3O + M => CH2O + H + M        77800000000000.02 0.0 13513.38
AR/7.000E-01/ CH4/2.000E+00/ CO/1.500E+00/ CO2/2.000E+00/ H2/2.000E+00/ H2O/6.000E+00/
C2H6 + OH <=> C2H5 + H2O        22000000.000000004 1.9 1123.33
C2H5 (+M) <=> C2H4 + H (+M)     11100000000.0 1.037 36768.64
LOW /3.9900000000000004e+33 -4.99 40000.0/
TROE /0.168 1200 1E-30/
AR/7.000E-01/ CH4/2.000E+00/ CO/1.500E+00/ CO2/2.000E+00/ H2/2.000E+00/ H2O/6.000E+00/
C2H4 + OH <=> C2H3 + H2O        553000.0 2.31 2963.6700000000005
C2H3 + H => C2H2 + H2           40000000000000.01 0.0 0.0
C2H3 + O2 => CH2O + HCO         1.7000000000000003e+29 -5.312 6503.11
C2H3 + O2 => CH2CHO + O         700000000000000.1 -0.611 5262.43
C2H2 + O <=> CO + T-CH2         160000000000000.03 0.0 9894.84
CH2CO + H => CH3 + CO           1500000000.0000002 1.43 2688.81
CH2OH + O2 => CH2O + HO2        5000000000000.001 0.0 0.0
CH2CO + OH => CH2OH + CO        10200000000000.002 0.0 0.0
CH2CHO => CH2CO + H             1.047e+37 -7.189 44340.34
CH3CHO <=> CH3 + HCO            7000000000000000.0 0.0 81700.05
CH3CO (+M) => CH3 + CO (+M)     3000000000000.0 0.0 16700.05
LOW /1200000000000000.2 0.0 12500.0/
TROE /1 1 1E+07 1E+07/
AR/7.000E-01/ CH4/2.000E+00/ CO/1.500E+00/ CO2/2.000E+00/ H2/2.000E+00/ H2O/6.000E+00/
CH3CHO + OH => CH3CO + H2O      3370000000000.0005 0.0 -619.98
CH3CHO + H => CH3CO + H2        46600000000000.01 -0.3 2989.96
CH3CHO + H => CH2CHO + H2       1850000000000.0002 0.4 5359.94
C2H5OH (+M) => CH2OH + CH3 (+M) 5000000000000000.0 0.0 82000.0
LOW /3.0000000000000004e+16 0.0 58000.0/
TROE /0.5 1E-30 1E+30/
AR/7.000E-01/ CH4/2.000E+00/ CO/1.500E+00/ CO2/2.000E+00/ H2/2.000E+00/ H2O/6.000E+00/
C2H5OH (+M) <=> C2H4 + H2O (+M) 80000000000000.0 0.0 65000.0
LOW /1.0000000000000002e+17 0.0 54000.0/
TROE /0.5 1E-30 1E+30/
AR/7.000E-01/ CH4/2.000E+00/ CO/1.500E+00/ CO2/2.000E+00/ H2/2.000E+00/ H2O/6.000E+00/
C2H5OH + OH => CH2CH2OH + H2O   181000000000.00003 0.4 717.02
C2H5OH + OH => CH3CHOH + H2O    30900000000.000004 0.5 -380.02
C2H5OH + OH => CH3CH2O + H2O    10500000000.000002 0.8 717.02
C2H5OH + H => CH3CHOH + H2      25800000.000000004 1.6 2830.07
C2H5OH + O => CH3CH2O + OH      15800000.000000002 2.0 4450.05
C2H5OH + HO2 => CH3CHOH + H2O2  8200.000000000002 2.5 10799.95
C2H4 + OH <=> CH2CH2OH          241000000000.00003 0.0 -2380.02
CH3CH2O + M => CH3CHO + H + M   5.600000000000001e+34 -5.9 25299.95
AR/7.000E-01/ CH4/2.000E+00/ CO/1.500E+00/ CO2/2.000E+00/ H2/2.000E+00/ H2O/6.000E+00/
CH3CH2O + M => CH2O + CH3 + M   5.350000000000001e+37 -7.0 23799.95
AR/7.000E-01/ CH4/2.000E+00/ CO/1.500E+00/ CO2/2.000E+00/ H2/2.000E+00/ H2O/6.000E+00/
CH3CHOH + O2 => CH3CHO + HO2    48200000000000.01 0.0 5020.08
END
