FoamFile
{
    format      ascii;
    class       dictionary;
    location    "system";
    object      setFieldsDict;
version 2.0;
}
// * * * * * * * * * * * * * * * * * * * * * * * * * * * * * * * * * * * * * //

defaultFieldValues
(
    // volScalarFieldValue p 1e5
    // volScalarFieldValue T 300
    // volScalarFieldValue N2 0.651
    // volScalarFieldValue CH4 0.07
    // volScalarFieldValue O2 0.279


    // volScalarFieldValue CO2 0.0
    // volScalarFieldValue H2O 0.0
    

);

regions
(
    // sphereToCell
    boxToCell
    {
        box (0.047 -0.2 -0.2) (0.5 0.2 0.2);
        // sphereToCell {
            // centre (0.0 0.0 0.01);
            // radius 0.004;
            fieldValues
            (
                // volScalarFieldValue p 1e5
                
                volScalarFieldValue C2H5OH 0
                volScalarFieldValue O2 0
                volScalarFieldValue N2 0.651
                

                volScalarFieldValue CO2 0.1745
                volScalarFieldValue H2O 0.1745


                volScalarFieldValue T 1800
            );
        // }
    }
);
