#
# Generated from file ethanol_mech.txt
# by ck2cti on Tue Feb 17 10:21:15 2015
#
# Transport data from file ethanol_trandat.txt.

units(length = "cm", time = "s", quantity = "mol", act_energy = "cal/mol")


ideal_gas(name = "ethanol_mech",
      elements = " H  O  C  N ",
      species = """ h2  h  ch4  ch3  ch2  ch  ch2o  hco  co2  co 
                   o2  o  oh  ho2  h2o2  h2o  c2h  hcco  c2h2  c2h3 
                   c2h4  c2h5  c2h6  ch2oh  ch3o  hccoh  h2ccch  c3h2  ch2(s)  ch2co 
                   c2o  hcoh  ch3oh  ch2hco  c3h6  ac3h5  pc3h5  sc3h5  ch2chcho  pc3h4 
                   ac3h4  ch3co  ch2chco  ch3chco  ch3hco  chocho  ic3h7  nc3h7  c2h5oh  c2h4oh 
                   ch3choh  ch3ch2o  ch2chch2o  hcooh  c3h8  hoc2h4o2  n2 """,
      reactions = "all",
      transport = "Mix",
      initial_state = state(temperature = 300.0,
                        pressure = OneAtm)    )



#-------------------------------------------------------------------------------
#  Species data 
#-------------------------------------------------------------------------------

species(name = "h2",
    atoms = " H:2 ",
    thermo = (
       NASA( [  300.00,  1000.00], [  3.298124000E+00,   8.249442000E-04, 
               -8.143015000E-07,  -9.475434000E-11,   4.134872000E-13,
               -1.012521000E+03,  -3.294094000E+00] ),
       NASA( [ 1000.00,  5000.00], [  2.991423000E+00,   7.000644000E-04, 
               -5.633829000E-08,  -9.231578000E-12,   1.582752000E-15,
               -8.350340000E+02,  -1.355110000E+00] )
             ),
    transport = gas_transport(
                     geom = "linear",
                     diam = 2.92,
                     well_depth = 38,
                     polar = 0.79,
                     rot_relax = 280),
    note = "121286"
       )

species(name = "h",
    atoms = " H:1 ",
    thermo = (
       NASA( [  300.00,  1000.00], [  2.500000000E+00,   0.000000000E+00, 
                0.000000000E+00,   0.000000000E+00,   0.000000000E+00,
                2.547163000E+04,  -4.601176000E-01] ),
       NASA( [ 1000.00,  5000.00], [  2.500000000E+00,   0.000000000E+00, 
                0.000000000E+00,   0.000000000E+00,   0.000000000E+00,
                2.547163000E+04,  -4.601176000E-01] )
             ),
    transport = gas_transport(
                     geom = "atom",
                     diam = 2.05,
                     well_depth = 145),
    note = "120186"
       )

species(name = "ch4",
    atoms = " C:1  H:4 ",
    thermo = (
       NASA( [  300.00,  1000.00], [  7.787415000E-01,   1.747668000E-02, 
               -2.783409000E-05,   3.049708000E-08,  -1.223931000E-11,
               -9.825229000E+03,   1.372219000E+01] ),
       NASA( [ 1000.00,  5000.00], [  1.683479000E+00,   1.023724000E-02, 
               -3.875129000E-06,   6.785585000E-10,  -4.503423000E-14,
               -1.008079000E+04,   9.623395000E+00] )
             ),
    transport = gas_transport(
                     geom = "nonlinear",
                     diam = 3.746,
                     well_depth = 141.4,
                     polar = 2.6,
                     rot_relax = 13),
    note = "121286"
       )

species(name = "ch3",
    atoms = " C:1  H:3 ",
    thermo = (
       NASA( [  300.00,  1000.00], [  2.430443000E+00,   1.112410000E-02, 
               -1.680220000E-05,   1.621829000E-08,  -5.864953000E-12,
                1.642378000E+04,   6.789794000E+00] ),
       NASA( [ 1000.00,  5000.00], [  2.844052000E+00,   6.137974000E-03, 
               -2.230345000E-06,   3.785161000E-10,  -2.452159000E-14,
                1.643781000E+04,   5.452697000E+00] )
             ),
    transport = gas_transport(
                     geom = "linear",
                     diam = 3.8,
                     well_depth = 144),
    note = "121286"
       )

species(name = "ch2",
    atoms = " C:1  H:2 ",
    thermo = (
       NASA( [  300.00,  1350.00], [  3.496239890E+00,   2.202586450E-03, 
               -4.238287990E-07,   1.364847060E-11,   4.319373720E-15,
                4.591927710E+04,   2.949643540E+00] ),
       NASA( [ 1350.00,  5000.00], [  3.443104660E+00,   2.326380110E-03, 
               -5.331479980E-07,   5.740439680E-11,  -2.426948490E-15,
                4.593757430E+04,   3.234847140E+00] )
             ),
    transport = gas_transport(
                     geom = "linear",
                     diam = 3.8,
                     well_depth = 144),
    note = "llnl94"
       )

species(name = "ch",
    atoms = " C:1  H:1 ",
    thermo = (
       NASA( [  300.00,  1000.00], [  3.200202000E+00,   2.072876000E-03, 
               -5.134431000E-06,   5.733890000E-09,  -1.955533000E-12,
                7.045259000E+04,   3.331588000E+00] ),
       NASA( [ 1000.00,  5000.00], [  2.196223000E+00,   2.340381000E-03, 
               -7.058201000E-07,   9.007582000E-11,  -3.855040000E-15,
                7.086723000E+04,   9.178373000E+00] )
             ),
    transport = gas_transport(
                     geom = "linear",
                     diam = 2.75,
                     well_depth = 80),
    note = "121286"
       )

species(name = "ch2o",
    atoms = " C:1  H:2  O:1 ",
    thermo = (
       NASA( [  300.00,  1000.00], [  1.652731000E+00,   1.263144000E-02, 
               -1.888168000E-05,   2.050031000E-08,  -8.413237000E-12,
               -1.486540000E+04,   1.378482000E+01] ),
       NASA( [ 1000.00,  5000.00], [  2.995606000E+00,   6.681321000E-03, 
               -2.628955000E-06,   4.737153000E-10,  -3.212517000E-14,
               -1.532037000E+04,   6.912572000E+00] )
             ),
    transport = gas_transport(
                     geom = "nonlinear",
                     diam = 3.59,
                     well_depth = 498,
                     rot_relax = 2),
    note = "121286"
       )

species(name = "hco",
    atoms = " H:1  C:1  O:1 ",
    thermo = (
       NASA( [  300.00,  1000.00], [  2.898330000E+00,   6.199147000E-03, 
               -9.623084000E-06,   1.089825000E-08,  -4.574885000E-12,
                4.159922000E+03,   8.983614000E+00] ),
       NASA( [ 1000.00,  5000.00], [  3.557271000E+00,   3.345573000E-03, 
               -1.335006000E-06,   2.470573000E-10,  -1.713851000E-14,
                3.916324000E+03,   5.552299000E+00] )
             ),
    transport = gas_transport(
                     geom = "nonlinear",
                     diam = 3.59,
                     well_depth = 498),
    note = "121286"
       )

species(name = "co2",
    atoms = " C:1  O:2 ",
    thermo = (
       NASA( [  300.00,  1000.00], [  2.275725000E+00,   9.922072000E-03, 
               -1.040911000E-05,   6.866687000E-09,  -2.117280000E-12,
               -4.837314000E+04,   1.018849000E+01] ),
       NASA( [ 1000.00,  5000.00], [  4.453623000E+00,   3.140169000E-03, 
               -1.278411000E-06,   2.393997000E-10,  -1.669033000E-14,
               -4.896696000E+04,  -9.553959000E-01] )
             ),
    transport = gas_transport(
                     geom = "linear",
                     diam = 3.763,
                     well_depth = 244,
                     polar = 2.65,
                     rot_relax = 2.1),
    note = "121286"
       )

species(name = "co",
    atoms = " C:1  O:1 ",
    thermo = (
       NASA( [  300.00,  1000.00], [  3.262452000E+00,   1.511941000E-03, 
               -3.881755000E-06,   5.581944000E-09,  -2.474951000E-12,
               -1.431054000E+04,   4.848897000E+00] ),
       NASA( [ 1000.00,  5000.00], [  3.025078000E+00,   1.442689000E-03, 
               -5.630828000E-07,   1.018581000E-10,  -6.910952000E-15,
               -1.426835000E+04,   6.108218000E+00] )
             ),
    transport = gas_transport(
                     geom = "linear",
                     diam = 3.65,
                     well_depth = 98.1,
                     polar = 1.95,
                     rot_relax = 1.8),
    note = "121286"
       )

species(name = "o2",
    atoms = " O:2 ",
    thermo = (
       NASA( [  300.00,  1000.00], [  3.212936000E+00,   1.127486000E-03, 
               -5.756150000E-07,   1.313877000E-09,  -8.768554000E-13,
               -1.005249000E+03,   6.034738000E+00] ),
       NASA( [ 1000.00,  5000.00], [  3.697578000E+00,   6.135197000E-04, 
               -1.258842000E-07,   1.775281000E-11,  -1.136435000E-15,
               -1.233930000E+03,   3.189166000E+00] )
             ),
    transport = gas_transport(
                     geom = "linear",
                     diam = 3.458,
                     well_depth = 107.4,
                     polar = 1.6,
                     rot_relax = 3.8),
    note = "121386"
       )

species(name = "o",
    atoms = " O:1 ",
    thermo = (
       NASA( [  300.00,  1000.00], [  2.946429000E+00,  -1.638166000E-03, 
                2.421032000E-06,  -1.602843000E-09,   3.890696000E-13,
                2.914764000E+04,   2.963995000E+00] ),
       NASA( [ 1000.00,  5000.00], [  2.542060000E+00,  -2.755062000E-05, 
               -3.102803000E-09,   4.551067000E-12,  -4.368052000E-16,
                2.923080000E+04,   4.920308000E+00] )
             ),
    transport = gas_transport(
                     geom = "atom",
                     diam = 2.75,
                     well_depth = 80),
    note = "120186"
       )

species(name = "oh",
    atoms = " O:1  H:1 ",
    thermo = (
       NASA( [  300.00,  1000.00], [  3.637266000E+00,   1.850910000E-04, 
               -1.676165000E-06,   2.387203000E-09,  -8.431442000E-13,
                3.606782000E+03,   1.358860000E+00] ),
       NASA( [ 1000.00,  5000.00], [  2.882730000E+00,   1.013974000E-03, 
               -2.276877000E-07,   2.174684000E-11,  -5.126305000E-16,
                3.886888000E+03,   5.595712000E+00] )
             ),
    transport = gas_transport(
                     geom = "linear",
                     diam = 2.75,
                     well_depth = 80),
    note = "121286"
       )

species(name = "ho2",
    atoms = " H:1  O:2 ",
    thermo = (
       NASA( [  300.00,  1451.00], [  3.476294990E+00,   2.204677450E-03, 
                1.568418760E-06,  -2.127558020E-09,   5.831407180E-13,
                6.170734460E+02,   7.023085160E+00] ),
       NASA( [ 1451.00,  5000.00], [  4.583114990E+00,   1.727303390E-03, 
               -6.191831360E-07,   9.919391930E-11,  -5.882215670E-15,
                3.133658590E+01,   3.461993860E-01] )
             ),
    transport = gas_transport(
                     geom = "nonlinear",
                     diam = 3.458,
                     well_depth = 107.4,
                     rot_relax = 1),
    note = "mar97"
       )

species(name = "h2o2",
    atoms = " H:2  O:2 ",
    thermo = (
       NASA( [  300.00,  1000.00], [  3.388754000E+00,   6.569226000E-03, 
               -1.485013000E-07,  -4.625806000E-09,   2.471515000E-12,
               -1.766315000E+04,   6.785363000E+00] ),
       NASA( [ 1000.00,  5000.00], [  4.573167000E+00,   4.336136000E-03, 
               -1.474689000E-06,   2.348904000E-10,  -1.431654000E-14,
               -1.800696000E+04,   5.011370000E-01] )
             ),
    transport = gas_transport(
                     geom = "nonlinear",
                     diam = 3.458,
                     well_depth = 107.4,
                     rot_relax = 3.8),
    note = "120186"
       )

species(name = "h2o",
    atoms = " H:2  O:1 ",
    thermo = (
       NASA( [  300.00,  1000.00], [  3.386842000E+00,   3.474982000E-03, 
               -6.354696000E-06,   6.968581000E-09,  -2.506588000E-12,
               -3.020811000E+04,   2.590233000E+00] ),
       NASA( [ 1000.00,  5000.00], [  2.672146000E+00,   3.056293000E-03, 
               -8.730260000E-07,   1.200996000E-10,  -6.391618000E-15,
               -2.989921000E+04,   6.862817000E+00] )
             ),
    transport = gas_transport(
                     geom = "nonlinear",
                     diam = 2.605,
                     well_depth = 572.4,
                     dipole = 1.844,
                     rot_relax = 4),
    note = "20387"
       )

species(name = "c2h",
    atoms = " C:2  H:1 ",
    thermo = (
       NASA( [  300.00,  1000.00], [  2.737704000E+00,   8.048446000E-03, 
               -9.244310000E-06,   6.525259000E-09,  -1.939580000E-12,
                6.683813000E+04,   7.300220000E+00] ),
       NASA( [ 1000.00,  4000.00], [  3.986367000E+00,   3.143123000E-03, 
               -1.267243000E-06,   2.924363000E-10,  -2.716320000E-14,
                6.655884000E+04,   1.191063000E+00] )
             ),
    transport = gas_transport(
                     geom = "linear",
                     diam = 3.721,
                     well_depth = 265.3,
                     rot_relax = 2.5),
    note = "81193"
       )

species(name = "hcco",
    atoms = " H:1  C:2  O:1 ",
    thermo = (
       NASA( [  300.00,  1000.00], [  5.047965000E+00,   4.453478000E-03, 
                2.268283000E-07,  -1.482095000E-09,   2.250742000E-13,
                1.965892000E+04,   4.818439000E-01] ),
       NASA( [ 1000.00,  4000.00], [  6.758073000E+00,   2.000400000E-03, 
               -2.027607000E-07,  -1.041132000E-10,   1.965165000E-14,
                1.901513000E+04,  -9.071262000E+00] )
             ),
    transport = gas_transport(
                     geom = "nonlinear",
                     diam = 2.5,
                     well_depth = 150,
                     rot_relax = 1),
    note = "32387"
       )

species(name = "c2h2",
    atoms = " C:2  H:2 ",
    thermo = (
       NASA( [  300.00,  1000.00], [  2.013562000E+00,   1.519045000E-02, 
               -1.616319000E-05,   9.078992000E-09,  -1.912746000E-12,
                2.612444000E+04,   8.805378000E+00] ),
       NASA( [ 1000.00,  5000.00], [  4.436770000E+00,   5.376039000E-03, 
               -1.912817000E-06,   3.286379000E-10,  -2.156710000E-14,
                2.566766000E+04,  -2.800338000E+00] )
             ),
    transport = gas_transport(
                     geom = "linear",
                     diam = 3.721,
                     well_depth = 265.3,
                     rot_relax = 2.5),
    note = "121386"
       )

species(name = "c2h3",
    atoms = " C:2  H:3 ",
    thermo = (
       NASA( [  300.00,  1671.00], [  2.739259420E+00,   7.030115910E-03, 
                2.366472990E-06,  -3.595697370E-09,   8.917564910E-13,
                3.428689790E+04,   1.015315350E+01] ),
       NASA( [ 1671.00,  5000.00], [  3.960477130E+00,   7.994260130E-03, 
               -2.856080870E-06,   4.583508130E-10,  -2.725701400E-14,
                3.351535440E+04,   2.256634140E+00] )
             ),
    transport = gas_transport(
                     geom = "nonlinear",
                     diam = 3.721,
                     well_depth = 265.3,
                     rot_relax = 1),
    note = "mar94"
       )

species(name = "c2h4",
    atoms = " C:2  H:4 ",
    thermo = (
       NASA( [  300.00,  1000.00], [ -8.614880000E-01,   2.796163000E-02, 
               -3.388677000E-05,   2.785152000E-08,  -9.737879000E-12,
                5.573046000E+03,   2.421149000E+01] ),
       NASA( [ 1000.00,  5000.00], [  3.528419000E+00,   1.148518000E-02, 
               -4.418385000E-06,   7.844601000E-10,  -5.266848000E-14,
                4.428289000E+03,   2.230389000E+00] )
             ),
    transport = gas_transport(
                     geom = "nonlinear",
                     diam = 3.496,
                     well_depth = 238.4,
                     rot_relax = 1.5),
    note = "121286"
       )

species(name = "c2h5",
    atoms = " C:2  H:5 ",
    thermo = (
       NASA( [  300.00,  1375.00], [  1.473748520E+00,   1.636066110E-02, 
               -4.328968260E-06,  -1.172706650E-09,   5.723258830E-13,
                1.333269920E+04,   1.663498520E+01] ),
       NASA( [ 1375.00,  5000.00], [  5.601160910E+00,   1.069770810E-02, 
               -3.635047800E-06,   5.618166540E-10,  -3.249147140E-14,
                1.145398450E+04,  -7.022524080E+00] )
             ),
    transport = gas_transport(
                     geom = "nonlinear",
                     diam = 4.35,
                     well_depth = 247.5,
                     rot_relax = 1.5),
    note = "jpc93"
       )

species(name = "c2h6",
    atoms = " C:2  H:6 ",
    thermo = (
       NASA( [  300.00,  1000.00], [  1.462539000E+00,   1.549467000E-02, 
                5.780507000E-06,  -1.257832000E-08,   4.586267000E-12,
               -1.123918000E+04,   1.443229000E+01] ),
       NASA( [ 1000.00,  4000.00], [  4.825938000E+00,   1.384043000E-02, 
               -4.557259000E-06,   6.724967000E-10,  -3.598161000E-14,
               -1.271779000E+04,  -5.239507000E+00] )
             ),
    transport = gas_transport(
                     geom = "nonlinear",
                     diam = 4.35,
                     well_depth = 247.5,
                     rot_relax = 1.5),
    note = "121686"
       )

species(name = "ch2oh",
    atoms = " C:1  H:3  O:1 ",
    thermo = (
       NASA( [  300.00,  1410.00], [  2.600678490E+00,   1.284478540E-02, 
               -8.337961850E-06,   2.757276060E-09,  -3.570411060E-13,
               -2.334787240E+03,   1.132723070E+01] ),
       NASA( [ 1410.00,  5000.00], [  6.001278030E+00,   4.987215680E-03, 
               -1.609535150E-06,   2.402271350E-10,  -1.355827000E-14,
               -3.501570980E+03,  -6.928368440E+00] )
             ),
    transport = gas_transport(
                     geom = "nonlinear",
                     diam = 3.69,
                     well_depth = 417,
                     dipole = 1.7,
                     rot_relax = 2),
    note = "mar97"
       )

species(name = "ch3o",
    atoms = " C:1  H:3  O:1 ",
    thermo = (
       NASA( [  300.00,  1000.00], [  2.106204000E+00,   7.216595000E-03, 
                5.338472000E-06,  -7.377636000E-09,   2.075611000E-12,
                9.786011000E+02,   1.315218000E+01] ),
       NASA( [ 1000.00,  3000.00], [  3.770800000E+00,   7.871497000E-03, 
               -2.656384000E-06,   3.944431000E-10,  -2.112616000E-14,
                1.278325000E+02,   2.929575000E+00] )
             ),
    transport = gas_transport(
                     geom = "nonlinear",
                     diam = 3.69,
                     well_depth = 417,
                     dipole = 1.7,
                     rot_relax = 2),
    note = "121686"
       )

species(name = "hccoh",
    atoms = " H:2  C:2  O:1 ",
    thermo = (
       NASA( [  300.00,  1000.00], [  3.899465000E+00,   9.701075000E-03, 
               -3.119309000E-07,  -5.537732000E-09,   2.465732000E-12,
                8.701190000E+03,   4.491875000E+00] ),
       NASA( [ 1000.00,  4000.00], [  7.328324000E+00,   3.336416000E-03, 
               -3.024705000E-07,  -1.781106000E-10,   3.245168000E-14,
                7.598258000E+03,  -1.401214000E+01] )
             ),
    transport = gas_transport(
                     geom = "nonlinear",
                     diam = 3.97,
                     well_depth = 436,
                     rot_relax = 2),
    note = "32387"
       )

species(name = "h2ccch",
    atoms = " C:3  H:3 ",
    thermo = (
       NASA( [  300.00,  1000.00], [  4.754200000E+00,   1.108028000E-02, 
                2.793323000E-07,  -5.479212000E-09,   1.949629000E-12,
                3.988883000E+04,   5.854549000E-01] ),
       NASA( [ 1000.00,  4000.00], [  8.831047000E+00,   4.357195000E-03, 
               -4.109067000E-07,  -2.368723000E-10,   4.376520000E-14,
                3.847420000E+04,  -2.177919000E+01] )
             ),
    transport = gas_transport(
                     geom = "nonlinear",
                     diam = 4.76,
                     well_depth = 252,
                     rot_relax = 1),
    note = "82489"
       )

species(name = "c3h2",
    atoms = " H:2  C:3 ",
    thermo = (
       NASA( [  150.00,  1000.00], [  3.166714000E+00,   2.482572000E-02, 
               -4.591637000E-05,   4.268019000E-08,  -1.482152000E-11,
                6.350421000E+04,   8.869446000E+00] ),
       NASA( [ 1000.00,  4000.00], [  7.670981000E+00,   2.748749000E-03, 
               -4.370943000E-07,  -6.455599000E-11,   1.663887000E-14,
                6.259722000E+04,  -1.236890000E+01] )
             ),
    transport = gas_transport(
                     geom = "nonlinear",
                     diam = 4.1,
                     well_depth = 209,
                     rot_relax = 1),
    note = "102193"
       )

species(name = "ch2(s)",
    atoms = " C:1  H:2 ",
    thermo = (
       NASA( [  300.00,  1359.00], [  3.323407010E+00,   2.280625790E-03, 
               -2.481560160E-07,  -1.020653860E-10,   2.488266190E-14,
                5.049544690E+04,   3.094014970E+00] ),
       NASA( [ 1359.00,  5000.00], [  3.096271800E+00,   2.808391850E-03, 
               -7.136145260E-07,   8.421362980E-11,  -3.846408280E-15,
                5.057396970E+04,   4.313922690E+00] )
             ),
    transport = gas_transport(
                     geom = "linear",
                     diam = 3.8,
                     well_depth = 144),
    note = "adjnbr"
       )

species(name = "ch2co",
    atoms = " C:2  H:2  O:1 ",
    thermo = (
       NASA( [  300.00,  1000.00], [  2.974971000E+00,   1.211871000E-02, 
               -2.345046000E-06,  -6.466685000E-09,   3.905649000E-12,
               -7.632637000E+03,   8.673553000E+00] ),
       NASA( [ 1000.00,  5000.00], [  6.038817000E+00,   5.804840000E-03, 
               -1.920954000E-06,   2.794485000E-10,  -1.458868000E-14,
               -8.583402000E+03,  -7.657581000E+00] )
             ),
    transport = gas_transport(
                     geom = "nonlinear",
                     diam = 3.97,
                     well_depth = 436,
                     rot_relax = 2),
    note = "121686"
       )

species(name = "c2o",
    atoms = " C:2  O:1 ",
    thermo = (
       NASA( [  300.00,  1000.00], [  3.368851000E+00,   8.241803000E-03, 
               -8.765145000E-06,   5.569262000E-09,  -1.540009000E-12,
                3.317081000E+04,   6.713314000E+00] ),
       NASA( [ 1000.00,  5000.00], [  4.849809000E+00,   2.947585000E-03, 
               -1.090729000E-06,   1.792562000E-10,  -1.115758000E-14,
                3.282055000E+04,  -6.453226000E-01] )
             ),
    transport = gas_transport(
                     geom = "linear",
                     diam = 3.828,
                     well_depth = 232.4,
                     rot_relax = 1),
    note = "121286"
       )

species(name = "hcoh",
    atoms = " C:1  H:2  O:1 ",
    thermo = (
       NASA( [  300.00,  1398.00], [ -2.821574210E+00,   3.573317020E-02, 
               -3.808615800E-05,   1.862059510E-08,  -3.459578380E-12,
                1.129566720E+04,   3.484877570E+01] ),
       NASA( [ 1398.00,  5000.00], [  9.187492720E+00,   1.520111520E-03, 
               -6.276035160E-07,   1.097279890E-10,  -6.896551280E-15,
                7.813645930E+03,  -2.734342140E+01] )
             ),
    transport = gas_transport(
                     geom = "nonlinear",
                     diam = 3.59,
                     well_depth = 498,
                     rot_relax = 1),
    note = "mar94"
       )

species(name = "ch3oh",
    atoms = " C:1  H:4  O:1 ",
    thermo = (
       NASA( [  300.00,  1000.00], [  2.660115000E+00,   7.341508000E-03, 
                7.170051000E-06,  -8.793194000E-09,   2.390570000E-12,
               -2.535348000E+04,   1.123263000E+01] ),
       NASA( [ 1000.00,  5000.00], [  4.029061000E+00,   9.376593000E-03, 
               -3.050254000E-06,   4.358793000E-10,  -2.224723000E-14,
               -2.615791000E+04,   2.378196000E+00] )
             ),
    transport = gas_transport(
                     geom = "nonlinear",
                     diam = 3.626,
                     well_depth = 481.8,
                     rot_relax = 1),
    note = "121686"
       )

species(name = "ch2hco",
    atoms = " O:1  H:3  C:2 ",
    thermo = (
       NASA( [  300.00,  1000.00], [  3.409062000E+00,   1.073857000E-02, 
                1.891492000E-06,  -7.158583000E-09,   2.867385000E-12,
                1.521477000E+03,   9.558290000E+00] ),
       NASA( [ 1000.00,  5000.00], [  5.975670000E+00,   8.130591000E-03, 
               -2.743624000E-06,   4.070304000E-10,  -2.176017000E-14,
                4.903218000E+02,  -5.045251000E+00] )
             ),
    transport = gas_transport(
                     geom = "nonlinear",
                     diam = 3.97,
                     well_depth = 436,
                     rot_relax = 2),
    note = "110393"
       )

species(name = "c3h6",
    atoms = " C:3  H:6 ",
    thermo = (
       NASA( [  300.00,  1000.00], [  1.493307000E+00,   2.092518000E-02, 
                4.486794000E-06,  -1.668912000E-08,   7.158146000E-12,
                1.074826000E+03,   1.614534000E+01] ),
       NASA( [ 1000.00,  5000.00], [  6.732257000E+00,   1.490834000E-02, 
               -4.949899000E-06,   7.212022000E-10,  -3.766204000E-14,
               -9.235703000E+02,  -1.331335000E+01] )
             ),
    transport = gas_transport(
                     geom = "nonlinear",
                     diam = 4.14,
                     well_depth = 307.8,
                     rot_relax = 1),
    note = "120186"
       )

species(name = "ac3h5",
    atoms = " C:3  H:5 ",
    thermo = (
       NASA( [  300.00,  1378.00], [  9.730138190E-01,   2.818185970E-02, 
               -1.629388090E-05,   3.961943250E-09,  -2.257045370E-13,
                1.852307530E+04,   1.932014080E+01] ),
       NASA( [ 1378.00,  5000.00], [  9.757624720E+00,   1.006151540E-02, 
               -3.406084530E-06,   5.256966410E-10,  -3.039173130E-14,
                1.528457330E+04,  -2.862371720E+01] )
             ),
    transport = gas_transport(
                     geom = "nonlinear",
                     diam = 4.22,
                     well_depth = 316,
                     rot_relax = 1),
    note = "mar97"
       )

species(name = "pc3h5",
    atoms = " C:3  H:5 ",
    thermo = (
       NASA( [  300.00,  1000.00], [  3.161863000E+00,   1.518100000E-02, 
                2.722659000E-06,  -5.177112000E-09,   5.435286000E-14,
                3.095548000E+04,   1.197973000E+01] ),
       NASA( [ 1000.00,  4000.00], [  9.209764000E+00,   7.871413000E-03, 
               -7.724523000E-07,  -4.497357000E-10,   8.377272000E-14,
                2.853967000E+04,  -2.232370000E+01] )
             ),
    transport = gas_transport(
                     geom = "nonlinear",
                     diam = 4.22,
                     well_depth = 316,
                     rot_relax = 1),
    note = "82489"
       )

species(name = "sc3h5",
    atoms = " C:3  H:5 ",
    thermo = (
       NASA( [  300.00,  1000.00], [  3.385811000E+00,   1.404534000E-02, 
                3.204127000E-06,  -3.824120000E-09,  -9.053742000E-13,
                2.909066000E+04,   1.126649000E+01] ),
       NASA( [ 1000.00,  4000.00], [  9.101018000E+00,   7.964168000E-03, 
               -7.884945000E-07,  -4.562036000E-10,   8.529212000E-14,
                2.670680000E+04,  -2.150559000E+01] )
             ),
    transport = gas_transport(
                     geom = "nonlinear",
                     diam = 4.22,
                     well_depth = 316,
                     rot_relax = 1),
    note = "82489"
       )

species(name = "ch2chcho",
    atoms = " C:3  H:4  O:1 ",
    thermo = (
       NASA( [  300.00,  1389.00], [  5.804678780E-01,   3.163846740E-02, 
               -2.279327180E-05,   8.423015790E-09,  -1.273279850E-12,
               -9.471468160E+03,   2.212642330E+01] ),
       NASA( [ 1389.00,  5000.00], [  9.959500560E+00,   9.865630390E-03, 
               -3.420480510E-06,   5.359783700E-10,  -3.130019660E-14,
               -1.274561960E+04,  -2.829958640E+01] )
             ),
    transport = gas_transport(
                     geom = "nonlinear",
                     diam = 4.12,
                     well_depth = 443.2,
                     rot_relax = 1),
    note = "mar94"
       )

species(name = "pc3h4",
    atoms = " H:4  C:3 ",
    thermo = (
       NASA( [  300.00,  1400.00], [  3.029730000E+00,   1.498961000E-02, 
               -1.398500000E-06,  -3.969619000E-09,   1.388217000E-12,
                2.148408000E+04,   8.004594000E+00] ),
       NASA( [ 1400.00,  4000.00], [  9.768102000E+00,   5.219151000E-03, 
               -3.753140000E-07,  -2.992191000E-10,   5.107878000E-14,
                1.860277000E+04,  -3.020678000E+01] )
             ),
    transport = gas_transport(
                     geom = "linear",
                     diam = 4.29,
                     well_depth = 324.8,
                     rot_relax = 1),
    note = "101993"
       )

species(name = "ac3h4",
    atoms = " H:4  C:3 ",
    thermo = (
       NASA( [  300.00,  1400.00], [  2.539831000E+00,   1.633437000E-02, 
               -1.764950000E-06,  -4.647365000E-09,   1.729131000E-12,
                2.251243000E+04,   9.935702000E+00] ),
       NASA( [ 1400.00,  4000.00], [  9.776256000E+00,   5.302138000E-03, 
               -3.701118000E-07,  -3.026386000E-10,   5.089581000E-14,
                1.954972000E+04,  -3.077061000E+01] )
             ),
    transport = gas_transport(
                     geom = "linear",
                     diam = 4.29,
                     well_depth = 324.8,
                     rot_relax = 1),
    note = "101993"
       )

species(name = "ch3co",
    atoms = " C:2  H:3  O:1 ",
    thermo = (
       NASA( [  300.00,  1000.00], [  3.125278000E+00,   9.778220000E-03, 
                4.521448000E-06,  -9.009462000E-09,   3.193718000E-12,
               -4.108508000E+03,   1.122885000E+01] ),
       NASA( [ 1000.00,  5000.00], [  5.612279000E+00,   8.449886000E-03, 
               -2.854147000E-06,   4.238376000E-10,  -2.268404000E-14,
               -5.187863000E+03,  -3.274949000E+00] )