/*--------------------------------*- C++ -*----------------------------------*\
| =========                 |                                                 |
| \\      /  F ield         | OpenFOAM: The Open Source CFD Toolbox           |
|  \\    /   O peration     | Version:  v2406                                 |
|   \\  /    A nd           | Website:  www.openfoam.com                      |
|    \\/     M anipulation  |                                                 |
\*---------------------------------------------------------------------------*/
FoamFile
{
    version     2.0;
    format      ascii;
    class       volVectorField;
    object      U;
}
// * * * * * * * * * * * * * * * * * * * * * * * * * * * * * * * * * * * * * //

dimensions      [0 1 -1 0 0 0 0];

internalField   uniform (0.0 0 0);

boundaryField
{
    X0
    {
        type            zeroGradient;
        // type            fixedValue;
        // inletValue      $internalField;
        // value           $internalField;
    }
    XL
    {
        // type            zeroGradient;
        // type            pressureInletOutletVelocity;
        // value           $internalField;
        type            pressureInletOutletVelocity;
        inletValue      $internalField;
        value           $internalField;


        // type            fixedValue;
        // inletValue      $internalField;
        // value           uniform (0.2 0 0);
    }

    "(border).*"
    {
        // type            zeroGradient;
        type            empty;
    }
    "(sym).*"
    {
        type            symmetryPlane;
    }
}


// ************************************************************************* //
