/*--------------------------------*- C++ -*----------------------------------*\
| =========                 |                                                 |
| \\      /  F ield         | OpenFOAM: The Open Source CFD Toolbox           |
|  \\    /   O peration     | Version:  v2406                                 |
|   \\  /    A nd           | Website:  www.openfoam.com                      |
|    \\/     M anipulation  |                                                 |
\*---------------------------------------------------------------------------*/
FoamFile
{
    version     2.0;
    format      ascii;
    class       volScalarField;
    object      N2;
}
// * * * * * * * * * * * * * * * * * * * * * * * * * * * * * * * * * * * * * //

dimensions      [0 0 0 0 0 0 0];

internalField   uniform 0.49;

boundaryField
{
    in
    {
        type            fixedValue;
        value           uniform 0.49;
    }
    out
    {
        type            inletOutlet;
        inletValue      uniform 0.49;
        value           uniform 0.49;
    }
    border
    {
        type            zeroGradient;
    }
}


// ************************************************************************* //
