FoamFile
{
    format      ascii;
    class       dictionary;
    location    "system";
    object      setFieldsDict;
}
// * * * * * * * * * * * * * * * * * * * * * * * * * * * * * * * * * * * * * //

defaultFieldValues
(
    // volScalarFieldValue p 1e5
    // volScalarFieldValue T 300
    // volScalarFieldValue N2 0.35
    // volScalarFieldValue CH4 0.5
    // volScalarFieldValue O2 0.15


    // volScalarFieldValue CO2 0.0
    // volScalarFieldValue H2O 0.0
    

);

regions
(
    // boxToCell
    // {
    //     box (-1 -1 -1) (1 0 1);
    //     fieldValues
    //     (
    //         // volScalarFieldValue p 1e5
            
    //         volScalarFieldValue CH4 0.1
    //         volScalarFieldValue O2 0.18

    //         volScalarFieldValue N2 0.72
    //         // volScalarFieldValue H2O 0.30


    //         // volScalarFieldValue T 2000
    //     );
    // }
    boxToCell
    {
        box (-0.003 -0.045 0.004) (0.003 -0.040 0.008);
        fieldValues
        (
            // volScalarFieldValue p 1e5
            
            // volScalarFieldValue CH4 0.1
            // volScalarFieldValue O2 0.18

            // volScalarFieldValue N2 0.72
            // volScalarFieldValue H2O 0.30


            volScalarFieldValue T 2000
        );
    }
);
