ELEM
N Ar He H O C
END

SPECIES
N2  AR  HE  H  O2  OH  O  H2  H2O  HO2  CO  CO2  HCO  CH3  CH4  CH2O  T-CH2
S-CH2  C2H4  CH3O  C2H5  C2H6  H2O2  C2H2  C2H3  CH2CHO  CH2CO  CH2OH  CH3CHO
CH3CO  C2H5OH  CH2CH2OH  CH3CHOH  CH3CH2O
END

THERMO ALL
300.000   1000.000  5000.000

!000000
 GRI-Mech Version 3.0 Thermodynamics released 7/30/99
 NASA Polynomial format for CHEMKIN-II
 see README file for disclaimer
N2                      N   2               G300.000   5000.000  1000.000      1
 2.92664000E+00 1.48797680E-03-5.68476000E-07 1.00970380E-10-6.75335100E-15    2
-9.22797700E+02 5.98052800E+00 3.29867700E+00 1.40824040E-03-3.96322200E-06    3
 5.64151500E-09-2.44485400E-12-1.02089990E+03 3.95037200E+00                   4
AR                000000Ar  1               G300.000   5000.000  5000.000      1
 2.50000000E+00 0.00000000E+00 0.00000000E+00 0.00000000E+00 0.00000000E+00    2
-7.45375000E+02 4.36600000E+00 2.50000000E+00 0.00000000E+00 0.00000000E+00    3
 0.00000000E+00 0.00000000E+00-7.45375000E+02 4.36600000E+00                   4
HE                000000He  1               G300.000   5000.000  5000.000      1
 2.50000000E+00 0.00000000E+00 0.00000000E+00 0.00000000E+00 0.00000000E+00    2
-7.45375000E+02 9.28723974E-01 2.50000000E+00 0.00000000E+00 0.00000000E+00    3
 0.00000000E+00 0.00000000E+00-7.45375000E+02 9.28723974E-01                   4
H                 000000H   1               G300.000   5000.000  1000.000      1
 2.50000001E+00-2.30842973E-11 1.61561948E-14-4.73515235E-18 4.98197357E-22    2
 2.54736599E+04-4.46682914E-01 2.50000000E+00 7.05332819E-13-1.99591964E-15    3
 2.30081632E-18-9.27732332E-22 2.54736599E+04-4.46682853E-01                   4
O2                000000O   2               G300.000   5000.000  1000.000      1
 3.28253784E+00 1.48308754E-03-7.57966669E-07 2.09470555E-10-2.16717794E-14    2
-1.08845772E+03 5.45323129E+00 3.78245636E+00-2.99673416E-03 9.84730201E-06    3
-9.68129509E-09 3.24372837E-12-1.06394356E+03 3.65767573E+00                   4
OH                000000H   1O   1          G300.000   5000.000  1000.000      1
 2.86472886E+00 1.05650448E-03-2.59082758E-07 3.05218674E-11-1.33195876E-15    2
 3.71885774E+03 5.70164073E+00 4.12530561E+00-3.22544939E-03 6.52764691E-06    3
-5.79853643E-09 2.06237379E-12 3.38153812E+03-6.90432960E-01                   4
O                 000000O   1               G300.000   5000.000  1000.000      1
 2.56942078E+00-8.59741137E-05 4.19484589E-08-1.00177799E-11 1.22833691E-15    2
 2.92175791E+04 4.78433864E+00 3.16826710E+00-3.27931884E-03 6.64306396E-06    3
-6.12806624E-09 2.11265971E-12 2.91222592E+04 2.05193346E+00                   4
H2                000000H   2               G300.000   5000.000  1000.000      1
 3.33727920E+00-4.94024731E-05 4.99456778E-07-1.79566394E-10 2.00255376E-14    2
-9.50158922E+02-3.20502331E+00 2.34433112E+00 7.98052075E-03-1.94781510E-05    3
 2.01572094E-08-7.37611761E-12-9.17935173E+02 6.83010238E-01                   4
H2O               000000H   2O   1          G300.000   5000.000  1000.000      1
 3.03399249E+00 2.17691804E-03-1.64072518E-07-9.70419870E-11 1.68200992E-14    2
-3.00042971E+04 4.96677010E+00 4.19864056E+00-2.03643410E-03 6.52040211E-06    3
-5.48797062E-09 1.77197817E-12-3.02937267E+04-8.49032208E-01                   4
HO2               000000H   1O   2          G300.000   5000.000  1000.000      1
 4.01721090E+00 2.23982013E-03-6.33658150E-07 1.14246370E-10-1.07908535E-14    2
 1.11856713E+02 3.78510215E+00 4.30179801E+00-4.74912051E-03 2.11582891E-05    3
-2.42763894E-08 9.29225124E-12 2.94808040E+02 3.71666245E+00                   4
CO                000000C   1O   1          G300.000   5000.000  1000.000      1
 2.71518561E+00 2.06252743E-03-9.98825771E-07 2.30053008E-10-2.03647716E-14    2
-1.41518724E+04 7.81868772E+00 3.57953347E+00-6.10353680E-04 1.01681433E-06    3
 9.07005884E-10-9.04424499E-13-1.43440860E+04 3.50840928E+00                   4
CO2               000000C   1O   2          G300.000   5000.000  1000.000      1
 3.85746029E+00 4.41437026E-03-2.21481404E-06 5.23490188E-10-4.72084164E-14    2
-4.87591660E+04 2.27163806E+00 2.35677352E+00 8.98459677E-03-7.12356269E-06    3
 2.45919022E-09-1.43699548E-13-4.83719697E+04 9.90105222E+00                   4
HCO               000000C   1H   1O   1     G300.000   5000.000  1000.000      1
 2.77217438E+00 4.95695526E-03-2.48445613E-06 5.89161778E-10-5.33508711E-14    2
 4.01191815E+03 9.79834492E+00 4.22118584E+00-3.24392532E-03 1.37799446E-05    3
-1.33144093E-08 4.33768865E-12 3.83956496E+03 3.39437243E+00                   4
CH3               000000C   1H   3          G300.000   5000.000  1000.000      1
 2.28571772E+00 7.23990037E-03-2.98714348E-06 5.95684644E-10-4.67154394E-14    2
 1.67755843E+04 8.48007179E+00 3.67359040E+00 2.01095175E-03 5.73021856E-06    3
-6.87117425E-09 2.54385734E-12 1.64449988E+04 1.60456433E+00                   4
CH4               000000C   1H   4          G300.000   5000.000  1000.000      1
 7.48514950E-02 1.33909467E-02-5.73285809E-06 1.22292535E-09-1.01815230E-13    2
-9.46834459E+03 1.84373180E+01 5.14987613E+00-1.36709788E-02 4.91800599E-05    3
-4.84743026E-08 1.66693956E-11-1.02466476E+04-4.64130376E+00                   4
CH2O              000000C   1H   2O   1     G300.000   5000.000  1000.000      1
 1.76069008E+00 9.20000082E-03-4.42258813E-06 1.00641212E-09-8.83855640E-14    2
-1.39958323E+04 1.36563230E+01 4.79372315E+00-9.90833369E-03 3.73220008E-05    3
-3.79285261E-08 1.31772652E-11-1.43089567E+04 6.02812900E-01                   4
T-CH2             000000C   1H   2          G300.000   5000.000  1000.000      1
 2.87410113E+00 3.65639292E-03-1.40894597E-06 2.60179549E-10-1.87727567E-14    2
 4.62636040E+04 6.17119324E+00 3.76267867E+00 9.68872143E-04 2.79489841E-06    3
-3.85091153E-09 1.68741719E-12 4.60040401E+04 1.56253185E+00                   4
S-CH2             000000C   1H   2          G300.000   5000.000  1000.000      1
 2.29203842E+00 4.65588637E-03-2.01191947E-06 4.17906000E-10-3.39716365E-14    2
 5.09259997E+04 8.62650169E+00 4.19860411E+00-2.36661419E-03 8.23296220E-06    3
-6.68815981E-09 1.94314737E-12 5.04968163E+04-7.69118967E-01                   4
C2H4              000000C   2H   4          G300.000   5000.000  1000.000      1
 2.03611116E+00 1.46454151E-02-6.71077915E-06 1.47222923E-09-1.25706061E-13    2
 4.93988614E+03 1.03053693E+01 3.95920148E+00-7.57052247E-03 5.70990292E-05    3
-6.91588753E-08 2.69884373E-11 5.08977593E+03 4.09733096E+00                   4
CH3O              000000C   1H   3O   1     G300.000   5000.000  1000.000      1
 4.75779238E+00 7.44142474E-03-2.69705176E-06 4.38090504E-10-2.63537098E-14    2
 3.90139164E+02-1.96680028E+00 3.71180502E+00-2.80463306E-03 3.76550971E-05    3
-4.73072089E-08 1.86588420E-11 1.30772484E+03 6.57240864E+00                   4
C2H5              000000C   2H   5          G300.000   5000.000  1000.000      1
 1.95465642E+00 1.73972722E-02-7.98206668E-06 1.75217689E-09-1.49641576E-13    2
 1.28575200E+04 1.34624343E+01 4.30646568E+00-4.18658892E-03 4.97142807E-05    3
-5.99126606E-08 2.30509004E-11 1.28416265E+04 4.70720924E+00                   4
C2H6              000000C   2H   6          G300.000   5000.000  1000.000      1
 1.07188150E+00 2.16852677E-02-1.00256067E-05 2.21412001E-09-1.90002890E-13    2
-1.14263932E+04 1.51156107E+01 4.29142492E+00-5.50154270E-03 5.99438288E-05    3
-7.08466285E-08 2.68685771E-11-1.15222055E+04 2.66682316E+00                   4
H2O2              000000H   2O   2          G300.000   5000.000  1000.000      1
 4.16500285E+00 4.90831694E-03-1.90139225E-06 3.71185986E-10-2.87908305E-14    2
-1.78617877E+04 2.91615662E+00 4.27611269E+00-5.42822417E-04 1.67335701E-05    3
-2.15770813E-08 8.62454363E-12-1.77025821E+04 3.43505074E+00                   4
C2H2              000000C   2H   2          G300.000   5000.000  1000.000      1
 4.14756964E+00 5.96166664E-03-2.37294852E-06 4.67412171E-10-3.61235213E-14    2
 2.59359992E+04-1.23028121E+00 8.08681094E-01 2.33615629E-02-3.55171815E-05    3
 2.80152437E-08-8.50072974E-12 2.64289807E+04 1.39397051E+01                   4
C2H3              000000C   2H   3          G300.000   5000.000  1000.000      1
 3.01672400E+00 1.03302292E-02-4.68082349E-06 1.01763288E-09-8.62607041E-14    2
 3.46128739E+04 7.78732378E+00 3.21246645E+00 1.51479162E-03 2.59209412E-05    3
-3.57657847E-08 1.47150873E-11 3.48598468E+04 8.51054025E+00                   4
CH2CHO            000000C   2H   3O   1     G300.000   5000.000  1000.000      1
 5.16620060E+00 1.08478260E-02-4.46583680E-06 8.06285480E-10-4.84101930E-14    2
-7.31993470E+02-1.96333610E+00 1.01340010E+00 2.26814670E-02-1.57339440E-05    3
 4.04915030E-09 2.95990120E-13 3.80428530E+02 1.93565520E+01                   4
CH2CO             000000C   2H   2O   1     G300.000   5000.000  1000.000      1
 4.51129732E+00 9.00359745E-03-4.16939635E-06 9.23345882E-10-7.94838201E-14    2
-7.55105311E+03 6.32247205E-01 2.13583630E+00 1.81188721E-02-1.73947474E-05    3
 9.34397568E-09-2.01457615E-12-7.04291804E+03 1.22156480E+01                   4
CH2OH             000000C   1H   3O   1     G300.000   5000.000  1000.000      1
 5.09312037E+00 5.94758550E-03-2.06496524E-06 3.23006703E-10-1.88125052E-14    2
-4.05813228E+03-1.84690613E+00 4.47832317E+00-1.35069687E-03 2.78483707E-05    3
-3.64867397E-08 1.47906775E-11-3.52476728E+03 3.30911984E+00                   4
CH3CHO            000000C   2H   4O   1     G300.000   5000.000  1000.000      1
 5.40411080E+00 1.17230590E-02-4.22631370E-06 6.83724510E-10-4.09848630E-14    2
-2.25931220E+04-3.48079170E+00 4.72945950E+00-3.19328580E-03 4.75349210E-05    3
-5.74586110E-08 2.19311120E-11-2.15728780E+04 4.10301590E+00                   4
CH3CO             000000C   2H   3O   1     G300.000   5000.000  1000.000      1
 5.94477310E+00 7.86672050E-03-2.88658820E-06 4.72708750E-10-2.85998610E-14    2
-3.78730750E+03-5.01367510E+00 4.16342570E+00-2.32616100E-04 3.42678200E-05    3
-4.41052270E-08 1.72756120E-11-2.65745290E+03 7.34682800E+00                   4
C2H5OH            000000C   2H   6O   1     G300.000   5000.000  1000.000      1
 4.34717120E+00 1.86288000E-02-6.77946700E-06 8.16592600E-10 0.00000000E+00    2
-3.06615743E+04 3.24247304E+00 5.76535800E-01 2.89451200E-02-1.61002000E-05    3
 3.59164100E-09 0.00000000E+00-2.96359500E+04 2.27081300E+01                   4
CH2CH2OH          000000C   2H   5O   1     G300.000   5000.000  1000.000      1
 7.52244726E+00 1.10492715E-02-3.72576465E-06 5.72827397E-10-3.30061759E-14    2
-7.29337464E+03-1.24960750E+01 1.17714711E+00 2.48115685E-02-1.50299503E-05    3
 4.79006785E-09-6.40994211E-13-4.95369043E+03 2.20081586E+01                   4
CH3CHOH           000000C   2H   5O   1     G300.000   5000.000  1000.000      1
 7.26570301E+00 1.09588926E-02-3.63662803E-06 5.53659830E-10-3.17012322E-14    2
-8.64371441E+03-1.06822851E+01 1.83974631E+00 1.87789371E-02-4.60544253E-06    3
-2.13116990E-09 9.43772653E-13-6.29595195E+03 2.01446141E+01                   4
CH3CH2O           000000C   2H   5O   1     G300.000   5000.000  1000.000      1
 8.31182392E+00 1.03426319E-02-3.39186089E-06 5.12212617E-10-2.91601713E-14    2
-6.13097954E+03-2.13985581E+01-2.71296378E-01 2.98839812E-02-1.97090548E-05    3
 6.37339893E-09-7.77965054E-13-3.16397196E+03 2.47706003E+01                   4
END

REACTIONS CAL/MOLE MOLE
H + O2 <=> O + OH               3.520000000000001e+16 -0.7 17069.79
H2 + O <=> H + OH               50600.00000000001 2.67 6290.63
H2 + OH <=> H + H2O             1170000000.0000002 1.3 3635.28
H2O + O <=> 2 OH                700000.0000000001 2.33 14548.28
2 H + M <=> H2 + M              1.3000000000000003e+18 -1.0 0.0
AR/5.000E-01/ CO/1.900E+00/ CO2/3.800E+00/ H2/2.500E+00/ H2O/1.200E+01/ HE/5.000E-01/
H + OH + M <=> H2O + M          4.000000000000001e+22 -2.0 0.0
AR/3.800E-01/ CO/1.900E+00/ CO2/3.800E+00/ H2/2.500E+00/ H2O/1.200E+01/ HE/3.800E-01/
H + O + M <=> OH + M            4.710000000000001e+18 -1.0 0.0
AR/7.500E-01/ CO/1.900E+00/ CO2/3.800E+00/ H2/2.500E+00/ H2O/1.200E+01/ HE/7.500E-01/
H + O2 (+M) <=> HO2 (+M)        4650000000000.001 0.44 0.0
LOW /5.750000000000001e+19 -1.4 0.0/
TROE /0.5 1E-30 1E+30/
AR/7.000E-01/ C2H6/1.500E+00/ CO/1.200E+00/ CO2/2.400E+00/ H2/2.500E+00/ H2O/1.600E+01/ HE/7.000E-01/
H + HO2 <=> 2 OH                70800000000000.02 0.0 294.93
H + HO2 => H2 + O2              16600000000000.002 0.0 822.9
H + HO2 <=> H2O + O             31000000000000.004 0.0 1720.84
HO2 + O => O2 + OH              20000000000000.004 0.0 0.0
HO2 + OH <=> H2O + O2           7000000000000.001 0.0 -1094.65
DUPLICATE
HO2 + OH <=> H2O + O2           450000000000000.06 0.0 10929.73
DUPLICATE
2 OH (+M) <=> H2O2 (+M)         95500000000000.02 -0.27 0.0
LOW /2.760000000000001e+25 -3.2 0.0/
TROE /0.57 1E+30 1E-30/
AR/7.000E-01/ CO/1.500E+00/ CO2/2.000E+00/ H2/2.500E+00/ H2O/6.000E+00/ H2O2/6.000E+00/ HE/4.000E-01/
2 HO2 => H2O2 + O2              103000000000000.02 0.0 11042.07
DUPLICATE
2 HO2 => H2O2 + O2              194000000000.00003 0.0 -1408.94
DUPLICATE
H2O2 + OH => H2O + HO2          1740000000000.0002 0.0 1434.03
DUPLICATE
H2O2 + OH => H2O + HO2          75900000000000.02 0.0 7272.94
DUPLICATE
CO + OH <=> CO2 + H             4400000.0 1.5 -740.92
HCO + M => CO + H + M           1.8600000000000003e+17 -1.0 17000.48
CO/2.500E+00/ CO2/2.500E+00/ H2/1.900E+00/ H2O/1.200E+01/
H + HCO => CO + H2              50000000000000.01 0.0 0.0
HCO + OH => CO + H2O            30000000000000.004 0.0 0.0
HCO + O2 => CO + HO2            7580000000000.001 0.0 409.89
CH3 + HCO => CH4 + CO           50000000000000.01 0.0 0.0
CH2O + H => H2 + HCO            57400000.000000015 1.9 2748.57
CH2O + O => HCO + OH            35000000000000.008 0.0 3513.38
CH2O + OH => H2O + HCO          39000000000.00001 0.89 406.31
CH4 + H => CH3 + H2             13000.000000000004 3.0 8037.760000000001
CH4 + OH => CH3 + H2O           16000000.000000004 1.83 2782.03
CH3 + OH <=> H2O + S-CH2        40000000000000.01 0.0 2502.39
CH3 + O => CH2O + H             84300000000000.02 0.0 0.0
CH3 + HO2 => CH3O + OH          5000000000000.001 0.0 0.0
CH3 + O2 => CH2O + OH           330000000000.00006 0.0 8941.2
2 CH3 <=> C2H5 + H              31600000000000.004 0.0 14698.85
CH3 + H (+M) => CH4 (+M)        1.2700000000000002e+16 -0.63 382.89
LOW /2.4700000000000006e+33 -4.76 2440.01/
TROE /0.783 74 2941 6964/
AR/7.000E-01/ CH4/2.000E+00/ CO/1.500E+00/ CO2/2.000E+00/ H2/2.000E+00/ H2O/1.600E+01/
2 CH3 (+M) => C2H6 (+M)         18100000000000.004 0.0 0.0
LOW /1.2700000000000002e+41 -7.0 2762.91/
TROE /0.62 73 1200/
AR/7.000E-01/ C2H6/3.000E+00/ CH4/2.000E+00/ CO/1.500E+00/ CO2/2.000E+00/ H2/2.000E+00/ H2O/6.000E+00/
O2 + S-CH2 => CO + H + OH       31300000000000.004 0.0 0.0
O2 + T-CH2 => CO2 + H2          2630000000000.0005 0.0 1491.4
O2 + T-CH2 => CO + H + OH       6580000000000.001 0.0 1491.4
CH3O + M => CH2O + H + M        77800000000000.02 0.0 13513.38
AR/7.000E-01/ CH4/2.000E+00/ CO/1.500E+00/ CO2/2.000E+00/ H2/2.000E+00/ H2O/6.000E+00/
C2H6 + OH <=> C2H5 + H2O        22000000.000000004 1.9 1123.33
C2H5 (+M) <=> C2H4 + H (+M)     11100000000.0 1.037 36768.64
LOW /3.9900000000000004e+33 -4.99 40000.0/
TROE /0.168 1200 1E-30/
AR/7.000E-01/ CH4/2.000E+00/ CO/1.500E+00/ CO2/2.000E+00/ H2/2.000E+00/ H2O/6.000E+00/
C2H4 + OH <=> C2H3 + H2O        553000.0 2.31 2963.6700000000005
C2H3 + H => C2H2 + H2           40000000000000.01 0.0 0.0
C2H3 + O2 => CH2O + HCO         1.7000000000000003e+29 -5.312 6503.11
C2H3 + O2 => CH2CHO + O         700000000000000.1 -0.611 5262.43
C2H2 + O <=> CO + T-CH2         160000000000000.03 0.0 9894.84
CH2CO + H => CH3 + CO           1500000000.0000002 1.43 2688.81
CH2OH + O2 => CH2O + HO2        5000000000000.001 0.0 0.0
CH2CO + OH => CH2OH + CO        10200000000000.002 0.0 0.0
CH2CHO => CH2CO + H             1.047e+37 -7.189 44340.34
CH3CHO <=> CH3 + HCO            7000000000000000.0 0.0 81700.05
CH3CO (+M) => CH3 + CO (+M)     3000000000000.0 0.0 16700.05
LOW /1200000000000000.2 0.0 12500.0/
TROE /1 1 1E+07 1E+07/
AR/7.000E-01/ CH4/2.000E+00/ CO/1.500E+00/ CO2/2.000E+00/ H2/2.000E+00/ H2O/6.000E+00/
CH3CHO + OH => CH3CO + H2O      3370000000000.0005 0.0 -619.98
CH3CHO + H => CH3CO + H2        46600000000000.01 -0.3 2989.96
CH3CHO + H => CH2CHO + H2       1850000000000.0002 0.4 5359.94
C2H5OH (+M) => CH2OH + CH3 (+M) 5000000000000000.0 0.0 82000.0
LOW /3.0000000000000004e+16 0.0 58000.0/
TROE /0.5 1E-30 1E+30/
AR/7.000E-01/ CH4/2.000E+00/ CO/1.500E+00/ CO2/2.000E+00/ H2/2.000E+00/ H2O/6.000E+00/
C2H5OH (+M) <=> C2H4 + H2O (+M) 80000000000000.0 0.0 65000.0
LOW /1.0000000000000002e+17 0.0 54000.0/
TROE /0.5 1E-30 1E+30/
AR/7.000E-01/ CH4/2.000E+00/ CO/1.500E+00/ CO2/2.000E+00/ H2/2.000E+00/ H2O/6.000E+00/
C2H5OH + OH => CH2CH2OH + H2O   181000000000.00003 0.4 717.02
C2H5OH + OH => CH3CHOH + H2O    30900000000.000004 0.5 -380.02
C2H5OH + OH => CH3CH2O + H2O    10500000000.000002 0.8 717.02
C2H5OH + H => CH3CHOH + H2      25800000.000000004 1.6 2830.07
C2H5OH + O => CH3CH2O + OH      15800000.000000002 2.0 4450.05
C2H5OH + HO2 => CH3CHOH + H2O2  8200.000000000002 2.5 10799.95
C2H4 + OH <=> CH2CH2OH          241000000000.00003 0.0 -2380.02
CH3CH2O + M => CH3CHO + H + M   5.600000000000001e+34 -5.9 25299.95
AR/7.000E-01/ CH4/2.000E+00/ CO/1.500E+00/ CO2/2.000E+00/ H2/2.000E+00/ H2O/6.000E+00/
CH3CH2O + M => CH2O + CH3 + M   5.350000000000001e+37 -7.0 23799.95
AR/7.000E-01/ CH4/2.000E+00/ CO/1.500E+00/ CO2/2.000E+00/ H2/2.000E+00/ H2O/6.000E+00/
CH3CHOH + O2 => CH3CHO + HO2    48200000000000.01 0.0 5020.08
END



TRANSPORT
N2                 1    97.530     3.621     0.000     1.760     4.000
AR                 0   136.500     3.330     0.000     0.000     0.000
HE                 0    10.200     2.576     0.000     0.000     0.000 ! *
H                  0   145.000     2.050     0.000     0.000     0.000
O2                 1   107.400     3.458     0.000     1.600     3.800
OH                 1    80.000     2.750     0.000     0.000     0.000
O                  0    80.000     2.750     0.000     0.000     0.000
H2                 1    38.000     2.920     0.000     0.790   280.000
H2O                2   572.400     2.605     1.844     0.000     4.000
HO2                2   107.400     3.458     0.000     0.000     1.000 ! *
CO                 1    98.100     3.650     0.000     1.950     1.800
CO2                1   244.000     3.763     0.000     2.650     2.100
HCO                2   498.000     3.590     0.000     0.000     0.000
CH3                1   144.000     3.800     0.000     0.000     0.000
CH4                2   141.400     3.746     0.000     2.600    13.000
CH2O               2   498.000     3.590     0.000     0.000     2.000
T-CH2              1   144.000     3.800     0.000     0.000     0.000
S-CH2              1   144.000     3.800     0.000     0.000     0.000
C2H4               2   238.400     3.496     0.000     0.000     1.500 ! NMM
CH3O               2   417.000     3.690     1.700     0.000     2.000
C2H5               2   247.500     4.350     0.000     0.000     1.500 ! NMM
C2H6               2   247.500     4.350     0.000     0.000     1.500 ! NMM
H2O2               2   107.400     3.458     0.000     0.000     3.800
C2H2               1   265.300     3.721     0.000     0.000     2.500 ! NMM
C2H3               2   265.300     3.721     0.000     0.000     1.000 ! NMM
CH2CHO             2   436.000     3.970     0.000     0.000     2.000
CH2CO              2   436.000     3.970     0.000     0.000     2.000
CH2OH              2   417.000     3.690     1.700     0.000     2.000
CH3CHO             2   436.000     3.970     0.000     0.000     2.000
CH3CO              2   436.000     3.970     0.000     0.000     2.000
C2H5OH             2   470.600     4.410     0.000     0.000     1.500 ! NMM
CH2CH2OH           2   362.600     4.530     0.000     0.000     1.500 ! MI
CH3CHOH            2   362.600     4.530     0.000     0.000     1.500 ! MI
CH3CH2O            2   470.600     4.410     0.000     0.000     1.500 ! NMM	!JLI_MV
END